Version 4
SHEET 1 3704 2024
WIRE 288 896 288 880
WIRE 880 912 832 912
WIRE 1008 912 960 912
WIRE 1136 912 1088 912
WIRE -48 928 -48 912
WIRE 1232 928 1168 928
WIRE 1360 928 1312 928
WIRE 400 976 400 960
WIRE 288 992 288 976
WIRE 368 992 288 992
WIRE 1312 992 1264 992
WIRE 64 1008 64 960
WIRE 512 1008 432 1008
WIRE 1264 1008 1264 992
WIRE -48 1024 -48 1008
WIRE 32 1024 -48 1024
WIRE 368 1024 288 1024
WIRE 512 1024 512 1008
WIRE 880 1024 832 1024
WIRE 1008 1024 960 1024
WIRE 1136 1024 1136 912
WIRE 1136 1024 1088 1024
WIRE 1168 1024 1168 928
WIRE 1168 1024 1136 1024
WIRE 1216 1024 1168 1024
WIRE 160 1040 96 1040
WIRE 416 1040 416 1024
WIRE 1360 1040 1360 928
WIRE 1360 1040 1280 1040
WIRE 32 1056 -48 1056
WIRE -48 1072 -48 1056
WIRE 1248 1088 1248 1072
WIRE 1312 1088 1312 992
WIRE 80 1120 80 1072
WIRE 288 1120 288 1024
WIRE 512 1120 512 1104
WIRE 512 1120 288 1120
WIRE 512 1136 512 1120
WIRE 880 1136 832 1136
WIRE 1008 1136 960 1136
WIRE 1136 1136 1136 1024
WIRE 1136 1136 1088 1136
WIRE -48 1168 -48 1152
WIRE 512 1232 512 1216
WIRE 1248 1264 1184 1264
WIRE 1376 1264 1328 1264
WIRE -608 1360 -608 1312
WIRE -448 1360 -448 1312
WIRE 1184 1360 1184 1264
WIRE 1248 1360 1184 1360
WIRE 1376 1360 1376 1264
WIRE 1376 1360 1312 1360
WIRE 1360 1424 1280 1424
WIRE 1280 1440 1280 1424
WIRE 928 1456 896 1456
WIRE 1072 1456 1008 1456
WIRE 1184 1456 1184 1360
WIRE 1184 1456 1152 1456
WIRE 1232 1456 1184 1456
WIRE 1376 1472 1376 1360
WIRE 1376 1472 1296 1472
WIRE -608 1504 -608 1440
WIRE -448 1504 -448 1440
WIRE 1264 1536 1264 1504
WIRE 1360 1536 1360 1424
WIRE 896 1600 896 1456
WIRE 1200 1760 1152 1760
WIRE 1344 1760 1280 1760
WIRE 1328 1824 1248 1824
WIRE 1248 1840 1248 1824
WIRE 976 1856 928 1856
WIRE 1072 1856 1056 1856
WIRE 1136 1856 1120 1856
WIRE 1152 1856 1152 1760
WIRE 1152 1856 1136 1856
WIRE 1200 1856 1152 1856
WIRE 928 1872 928 1856
WIRE 1344 1872 1344 1760
WIRE 1344 1872 1264 1872
WIRE 1232 1920 1232 1904
WIRE 1328 1920 1328 1824
WIRE 928 1984 928 1952
FLAG -48 1168 0
FLAG -48 912 0
FLAG 288 880 0
FLAG 832 912 0
FLAG 832 1136 0
FLAG 832 1024 0
FLAG 896 1600 0
FLAG 928 1984 0
FLAG -608 1312 VCC
IOPIN -608 1312 In
FLAG -608 1504 0
FLAG 64 960 VSS
IOPIN 64 960 In
FLAG -448 1312 VSS
IOPIN -448 1312 In
FLAG -448 1504 0
FLAG 80 1120 VCC
IOPIN 80 1120 In
FLAG 512 1232 0
FLAG 400 960 VSS
IOPIN 400 960 In
FLAG 416 1040 VCC
IOPIN 416 1040 In
FLAG 1248 1088 VSS
IOPIN 1248 1088 In
FLAG 1312 1088 VCC
IOPIN 1312 1088 In
FLAG 1264 1536 VSS
IOPIN 1264 1536 In
FLAG 1360 1536 VCC
IOPIN 1360 1536 In
FLAG 1232 1920 VSS
IOPIN 1232 1920 In
FLAG 1328 1920 VCC
IOPIN 1328 1920 In
SYMBOL voltage -48 912 R0
WINDOW 0 -72 37 Left 2
WINDOW 3 -61 70 Left 2
WINDOW 123 0 0 Left 0
WINDOW 39 0 0 Left 0
SYMATTR InstName VA
SYMATTR Value 3
SYMBOL voltage -48 1168 R180
WINDOW 0 43 69 Left 2
WINDOW 3 37 42 Left 2
WINDOW 123 0 0 Left 0
WINDOW 39 0 0 Left 0
SYMATTR InstName VB
SYMATTR Value SINE(0 5 100 0)
SYMBOL voltage -608 1344 R0
WINDOW 0 -82 34 Left 2
WINDOW 3 -85 63 Left 2
WINDOW 123 0 0 Left 0
WINDOW 39 0 0 Left 0
SYMATTR InstName Vc
SYMATTR Value 12
SYMBOL OpAmps\\LM308 64 1104 M180
SYMATTR InstName U2
SYMBOL voltage 288 992 R180
WINDOW 0 42 65 Left 2
WINDOW 3 44 42 Left 2
WINDOW 123 0 0 Left 0
WINDOW 39 0 0 Left 0
SYMATTR InstName Vin
SYMATTR Value 3
SYMBOL OpAmps\\LM308 400 1072 M180
SYMATTR InstName U1
SYMBOL res 496 1120 R0
SYMATTR InstName Rb
SYMATTR Value 2k
SYMBOL res 496 1008 R0
SYMATTR InstName Ra
SYMATTR Value 2k
SYMBOL voltage 976 912 R90
WINDOW 0 -30 -9 VRight 2
WINDOW 3 14 6 VRight 2
WINDOW 123 0 0 Left 0
WINDOW 39 0 0 Left 0
SYMATTR InstName V1
SYMATTR Value 6
SYMBOL OpAmps\\LM308 1248 976 R0
SYMATTR InstName U3
SYMBOL res 1328 912 R90
WINDOW 0 0 56 VBottom 2
WINDOW 3 32 56 VTop 2
SYMATTR InstName P1
SYMATTR Value 10k
SYMBOL res 1104 1008 R90
WINDOW 0 0 56 VBottom 2
WINDOW 3 32 56 VTop 2
SYMATTR InstName R2
SYMATTR Value 10k
SYMBOL res 1104 1120 R90
WINDOW 0 0 56 VBottom 2
WINDOW 3 32 56 VTop 2
SYMATTR InstName R3
SYMATTR Value 5k
SYMBOL res 1104 896 R90
WINDOW 0 0 56 VBottom 2
WINDOW 3 32 56 VTop 2
SYMATTR InstName R1
SYMATTR Value 2.5k
SYMBOL voltage 976 1136 R90
WINDOW 0 -27 -13 VRight 2
WINDOW 3 17 1 VRight 2
WINDOW 123 0 0 Left 0
WINDOW 39 0 0 Left 0
SYMATTR InstName V3
SYMATTR Value 3
SYMBOL voltage 976 1024 R90
WINDOW 0 -29 -8 VRight 2
WINDOW 3 12 5 VRight 2
WINDOW 123 0 0 Left 0
WINDOW 39 0 0 Left 0
SYMATTR InstName V2
SYMATTR Value 3
SYMBOL OpAmps\\LM308 1264 1408 R0
SYMATTR InstName U4
SYMBOL res 1168 1440 R90
WINDOW 0 0 56 VBottom 2
WINDOW 3 32 56 VTop 2
SYMATTR InstName P2
SYMATTR Value 10k
SYMBOL voltage 1024 1456 R90
WINDOW 0 -29 -14 VRight 2
WINDOW 3 12 5 VRight 2
WINDOW 123 0 0 Left 0
WINDOW 39 0 0 Left 0
SYMATTR InstName V4
SYMATTR Value 3
SYMBOL cap 1312 1344 R90
WINDOW 0 0 32 VBottom 2
WINDOW 3 32 32 VTop 2
SYMATTR InstName C1
SYMATTR Value 0.047µ
SYMBOL res 1344 1248 R90
WINDOW 0 0 56 VBottom 2
WINDOW 3 32 56 VTop 2
SYMATTR InstName R4
SYMATTR Value 200k
SYMBOL OpAmps\\LM308 1232 1808 R0
SYMATTR InstName U5
SYMBOL res 1072 1840 R90
WINDOW 0 0 56 VBottom 2
WINDOW 3 32 56 VTop 2
SYMATTR InstName R5
SYMATTR Value 150
SYMBOL voltage 928 1856 R0
WINDOW 0 -40 39 Right 2
WINDOW 3 -41 64 Right 2
WINDOW 123 0 0 Left 0
WINDOW 39 0 0 Left 0
SYMATTR InstName V5
SYMATTR Value 3
SYMBOL res 1296 1744 R90
WINDOW 0 0 56 VBottom 2
WINDOW 3 32 56 VTop 2
SYMATTR InstName P3
SYMATTR Value 5k
SYMBOL cap 1136 1840 R90
WINDOW 0 0 32 VBottom 2
WINDOW 3 32 32 VTop 2
SYMATTR InstName C2
SYMATTR Value 0.001µ
SYMBOL voltage -448 1456 R180
WINDOW 0 42 74 Left 2
WINDOW 3 42 45 Left 2
WINDOW 123 0 0 Left 0
WINDOW 39 0 0 Left 0
SYMATTR InstName Vs
SYMATTR Value 12
TEXT -272 720 Left 2 !.tran 0.01
